obj01
  PyMOL2.5          3D                             0

 35 42  0  0  0  0  0  0  0  0999 V2000
  -22.5290    8.2150   -6.2330 C   0  0  0  0  0  0  0  0  0  0  0  0
  -23.2090   13.6580  -10.6570 N   0  0  0  0  0  0  0  0  0  0  0  0
  -23.8830    7.8650   -6.5180 C   0  0  0  0  0  0  0  0  0  0  0  0
  -18.4920   12.1090   -7.5610 N   0  0  0  0  0  0  0  0  0  0  0  0
  -24.6220    8.6500   -7.4250 C   0  0  0  0  0  0  0  0  0  0  0  0
  -20.6910    9.9490   -6.8280 N   0  0  0  0  0  0  0  0  0  0  0  0
  -23.8060    9.5420   -7.7750 C   0  0  0  0  0  0  0  0  0  0  0  0
  -16.4210    7.6470   -6.5520 N   0  0  0  0  0  0  0  0  0  0  0  0
  -18.8300   10.7200   -5.6300 O   0  0  0  0  0  0  0  0  0  0  0  0
  -22.6790   10.0740   -7.7130 C   0  0  0  0  0  0  0  0  0  0  0  0
  -24.5380   11.9200   -9.8390 O   0  0  0  0  0  0  0  0  0  0  0  0
  -21.9850   11.1270   -8.2350 C   0  0  0  0  0  0  0  0  0  0  0  0
  -17.7260    9.6560   -8.5060 O   0  0  0  0  0  0  0  0  0  0  0  0
  -22.2030   12.1750   -9.1310 C   0  0  0  0  0  0  0  0  0  0  0  0
  -23.4190   12.5500   -9.8880 C   0  0  0  0  0  0  0  0  0  0  0  0
  -21.8080   14.0980  -10.4350 C   0  0  0  0  0  0  0  0  0  0  0  0
  -21.2700   13.1290   -9.4710 C   0  0  0  0  0  0  0  0  0  0  0  0
  -19.9990   13.0160   -8.8790 C   0  0  0  0  0  0  0  0  0  0  0  0
  -18.8390   13.7560   -8.9730 C   0  0  0  0  0  0  0  0  0  0  0  0
  -18.6010   14.8950   -9.7420 C   0  0  0  0  0  0  0  0  0  0  0  0
  -17.3300   15.4810   -9.6950 C   0  0  0  0  0  0  0  0  0  0  0  0
  -16.3420   14.9280   -8.8700 C   0  0  0  0  0  0  0  0  0  0  0  0
  -16.6040   13.7900   -8.0910 C   0  0  0  0  0  0  0  0  0  0  0  0
  -17.8690   13.1910   -8.1380 C   0  0  0  0  0  0  0  0  0  0  0  0
  -19.7690   11.9850   -7.9800 C   0  0  0  0  0  0  0  0  0  0  0  0
  -20.7440   11.0340   -7.6600 C   0  0  0  0  0  0  0  0  0  0  0  0
  -21.9040    9.3360   -6.8470 C   0  0  0  0  0  0  0  0  0  0  0  0
  -17.8550   11.1780   -6.5720 C   0  0  0  0  0  0  0  0  0  0  0  0
  -17.1510    9.9760   -7.2290 C   0  0  0  0  0  0  0  0  0  0  0  0
  -17.3140    8.7690   -6.3050 C   0  0  0  0  0  0  0  0  0  0  0  0
  -18.7560    8.3330   -6.4350 C   0  0  0  0  0  0  0  0  0  0  0  0
  -19.5820    9.5180   -5.9480 C   0  0  0  0  0  0  0  0  0  0  0  0
  -16.8790   11.9670   -5.7090 C   0  0  0  0  0  0  0  0  0  0  0  0
  -17.0910   10.3380   -9.5820 C   0  0  0  0  0  0  0  0  0  0  0  0
  -16.1990    6.6870   -5.4800 C   0  0  0  0  0  0  0  0  0  0  0  0
  1  3  4  0  0  0  0
  2 15  4  0  0  0  0
  3  5  4  0  0  0  0
  4 24  4  0  0  0  0
  4 25  4  0  0  0  0
  5  7  4  0  0  0  0
  8 35  1  0  0  0  0
  9 28  1  0  0  0  0
  9 32  1  0  0  0  0
  7 10  4  0  0  0  0
 10 27  4  0  0  0  0
 10 12  4  0  0  0  0
 12 14  4  0  0  0  0
 13 34  1  0  0  0  0
 14 15  4  0  0  0  0
 14 17  4  0  0  0  0
 11 15  2  0  0  0  0
  2 16  4  0  0  0  0
 16 17  4  0  0  0  0
 17 18  4  0  0  0  0
 18 19  4  0  0  0  0
 19 20  4  0  0  0  0
 19 24  4  0  0  0  0
 20 21  4  0  0  0  0
 21 22  4  0  0  0  0
 22 23  4  0  0  0  0
 23 24  4  0  0  0  0
 18 25  4  0  0  0  0
 25 26  4  0  0  0  0
  6 26  4  0  0  0  0
 12 26  4  0  0  0  0
  1 27  4  0  0  0  0
  6 27  4  0  0  0  0
  4 28  1  0  0  0  0
 28 33  1  0  0  0  0
 13 29  1  0  0  0  0
 28 29  1  0  0  0  0
  8 30  1  0  0  0  0
 29 30  1  0  0  0  0
 30 31  1  0  0  0  0
  6 32  1  0  0  0  0
 31 32  1  0  0  0  0
M  END
$$$$
